Warning: can't find the initialization file spinit.

Note: No compatibility mode selected!


Circuit: test opamp acdc

Doing analysis at TEMP = 27.000000 and TNOM = 27.000000

Using SPARSE 1.3 as Direct Linear Solver
Note: Starting dynamic gmin stepping
Note: Dynamic gmin stepping completed

No. of Data Rows : 1650

  Measurements for AC Analysis

maxval              =  4.500597e-01 at=  -4.000000e+01
minval              =  4.500250e-01 at=  7.400000e+01
avgval              =  4.500322e-01 from=  -4.000000e+01 to=  1.249000e+02
ppavl               =  3.470334e-05 from=  -4.000000e+01 to=  1.250000e+02
tc                  =  4.67352e-07
ivdd25              =  -2.380694e-04
power               =  4.28525e-04
vout25              =  4.500294e-01
vos25               =  2.93982e-05


Warning: command 'plot' is not available during batch simulation, ignored!
    You may use Gnuplot instead.

Doing analysis at TEMP = 27.000000 and TNOM = 27.000000

Using SPARSE 1.3 as Direct Linear Solver
Note: Starting dynamic gmin stepping
Note: Dynamic gmin stepping completed

No. of Data Rows : 101

  Measurements for AC Analysis

cmrrdc              =  -6.781214e+01
dcgain              =  1.084195e+02
gain_bandwidth_product=   1.59028e+06
phase_in_rad        =  1.347462e+00
phase_in_deg        =  7.72037e+01
dcpsrp              =  -7.063488e+01
dcpsrn              =  -7.924507e+01


Warning: command 'plot' is not available during batch simulation, ignored!
    You may use Gnuplot instead.


Warning: command 'plot' is not available during batch simulation, ignored!
    You may use Gnuplot instead.

Doing analysis at TEMP = 27.000000 and TNOM = 27.000000

Using SPARSE 1.3 as Direct Linear Solver

  Measurements for AC Analysis

cmrrdc              =  -6.781214e+01
dcgain              =  1.084195e+02
gain_bandwidth_product=   1.59028e+06
phase_in_rad        =  1.347462e+00
Netlist line no. 57:
insertnumber: fails.
  s = ".meas ac phase_in_deg param=    7.720369210111767e+01   " u="  7.720369210111767e+01  " id=0
phase_in_deg        =   failed
dcpsrp              =  -7.063488e+01
dcpsrn              =  -7.924507e+01


Total analysis time (seconds) = 2.067

Total elapsed time (seconds) = 6.000 

Total DRAM available = 1031447.340 MB.
DRAM currently available = 587341.020 MB.
Maximum ngspice program size =  205.926 MB.
Current ngspice program size =  124.926 MB.

Shared ngspice pages =    4.090 MB.
Text (code) pages =    6.008 MB.
Stack = 0 bytes.
Library pages =  129.457 MB.

