Warning: can't find the initialization file spinit.

Note: No compatibility mode selected!


Circuit: test opamp tran

Doing analysis at TEMP = 27.000000 and TNOM = 27.000000

Using SPARSE 1.3 as Direct Linear Solver
Note: Starting dynamic gmin stepping
Note: Dynamic gmin stepping completed

Initial Transient Solution
--------------------------

Node                                   Voltage
----                                   -------
vdd                                        1.8
vss                                          0
visr                                       0.3
vout3                                      0.3
xop6.net050                           0.481176
xop6.net049                            0.80275
xop6.net1                             0.480968
xop6.net043                           0.793653
xop6.net2                            0.0959273
xop6.voutn                            0.481127
xop6.net063                          0.0921922
xop6.net31                             1.27308
xop6.dm_2                            0.0921916
xop6.vb3                              0.793766
xop6.dm_1                             0.696472
xop6.vb4                              0.696472
xop6.net54                            0.094204
xop6.net56                            0.094204
vvisr#branch                                 0
v2#branch                          0.000238496
v1#branch                         -0.000238496


No. of Data Rows : 477

  Measurements for Transient Analysis

t_rise_edge         =   1.44362e-06
t_rise_             =  4.43622e-07
t_rise              =  4.43622e-01
sr_rise             =  2.25417e-01
t_fall_edge         =   2.01098e-04
t_fall              =  9.79026e-08
Netlist line no. 67:
Undefined parameter [t_fall_]
Netlist line no. 67:
 Expression err: t_fall_*1e6}
Netlist line no. 67:
Cannot compute substitute
t_fall              =   failed
sr_fall             =  1.02142e+06


Warning: command 'plot' is not available during batch simulation, ignored!
    You may use Gnuplot instead.

ASCII raw file "tran.dat"
Doing analysis at TEMP = 27.000000 and TNOM = 27.000000

Using SPARSE 1.3 as Direct Linear Solver

  Measurements for Transient Analysis

t_rise_edge         =   1.44362e-06
Netlist line no. 61:
insertnumber: fails.
  s = ".meas tran t_rise_ param=    4.436220427549048e-07   " u="  4.436220427549048e-07  " id=0
t_rise_             =   failed
Netlist line no. 62:
insertnumber: fails.
  s = ".meas tran t_rise param=    4.436220427549048e-01   " u="  4.436220427549048e-01  " id=0
t_rise              =   failed
Netlist line no. 63:
insertnumber: fails.
  s = ".meas tran sr_rise param=    2.254171126822223e-01   " u="  2.254171126822223e-01  " id=0
sr_rise             =   failed
t_fall_edge         =   2.01098e-04
Netlist line no. 66:
insertnumber: fails.
  s = ".meas tran t_fall param=    9.790260193623564e-08   " u="  9.790260193623564e-08  " id=0
t_fall              =   failed
Netlist line no. 67:
Undefined parameter [t_fall_]
Netlist line no. 67:
 Expression err: t_fall_*1e6}
Netlist line no. 67:
Cannot compute substitute
t_fall              =   failed
Netlist line no. 68:
insertnumber: fails.
  s = ".meas tran sr_fall param=    1.021423312785194e+06   " u="  1.021423312785194e+06  " id=0
sr_fall             =   failed


Total analysis time (seconds) = 0.113

Total elapsed time (seconds) = 1.001 

Total DRAM available = 1031447.340 MB.
DRAM currently available = 587427.020 MB.
Maximum ngspice program size =  118.047 MB.
Current ngspice program size =   37.473 MB.

Shared ngspice pages =    4.047 MB.
Text (code) pages =    6.008 MB.
Stack = 0 bytes.
Library pages =   41.578 MB.

