Warning: can't find the initialization file spinit.

Note: No compatibility mode selected!


Circuit: test opamp acdc

Doing analysis at TEMP = 27.000000 and TNOM = 27.000000

Using SPARSE 1.3 as Direct Linear Solver
Note: Starting dynamic gmin stepping
Note: Dynamic gmin stepping completed

No. of Data Rows : 1650

  Measurements for AC Analysis

maxval              =  4.500001e-01 at=  -4.000000e+01
minval              =  4.500000e-01 at=  1.249000e+02
avgval              =  4.500000e-01 from=  -4.000000e+01 to=  1.249000e+02
ppavl               =  6.307889e-08 from=  -4.000000e+01 to=  1.250000e+02
tc                  =  8.49547e-10
ivdd25              =  -3.024790e-05
power               =  5.44462e-05
vout25              =  4.500000e-01
vos25               =  2.08086e-09


Warning: command 'plot' is not available during batch simulation, ignored!
    You may use Gnuplot instead.

Doing analysis at TEMP = 27.000000 and TNOM = 27.000000

Using SPARSE 1.3 as Direct Linear Solver
Note: Starting dynamic gmin stepping
Note: Dynamic gmin stepping completed

No. of Data Rows : 101

  Measurements for AC Analysis

cmrrdc              =  -1.539080e+02
dcgain              =  1.490776e+02
gain_bandwidth_product=   6.98563e+05
phase_in_rad        =  -5.670651e-01
phase_in_deg        =  -3.24904e+01
dcpsrp              =  -1.536542e+02
dcpsrn              =  -1.498189e+02


Warning: command 'plot' is not available during batch simulation, ignored!
    You may use Gnuplot instead.


Warning: command 'plot' is not available during batch simulation, ignored!
    You may use Gnuplot instead.

Doing analysis at TEMP = 27.000000 and TNOM = 27.000000

Using SPARSE 1.3 as Direct Linear Solver

  Measurements for AC Analysis

cmrrdc              =  -1.539080e+02
dcgain              =  1.490776e+02
gain_bandwidth_product=   6.98563e+05
phase_in_rad        =  -5.670651e-01
Netlist line no. 57:
insertnumber: fails.
  s = ".meas ac phase_in_deg param=   -3.249035859379024e+01   " u=" -3.249035859379024e+01  " id=0
phase_in_deg        =   failed
dcpsrp              =  -1.536542e+02
dcpsrn              =  -1.498189e+02


Total analysis time (seconds) = 1.913

Total elapsed time (seconds) = 4.351 

Total DRAM available = 1031447.340 MB.
DRAM currently available = 578471.312 MB.
Maximum ngspice program size =  185.301 MB.
Current ngspice program size =  104.379 MB.

Shared ngspice pages =    4.102 MB.
Text (code) pages =    6.008 MB.
Stack = 0 bytes.
Library pages =  108.832 MB.

