Warning: can't find the initialization file spinit.

Note: No compatibility mode selected!


Circuit: test opamp tran

Doing analysis at TEMP = 27.000000 and TNOM = 27.000000

Using SPARSE 1.3 as Direct Linear Solver
Note: Starting dynamic gmin stepping
Note: Dynamic gmin stepping completed

Initial Transient Solution
--------------------------

Node                                   Voltage
----                                   -------
vdd                                        1.8
vss                                          0
visr                                       0.3
vout3                                 0.309154
xop6.net050                           0.771747
xop6.net049                            0.65911
xop6.voutn                            0.588959
xop6.net043                           0.615797
xop6.net063                          0.0388369
xop6.net31                             1.57773
xop6.dm_2                            0.0373119
xop6.net013                           0.480968
xop6.vb3                              0.728614
xop6.dm_1                             0.652333
xop6.vb4                              0.652333
xop6.net54                           0.0755187
xop6.net56                           0.0755187
vvisr#branch                                 0
v2#branch                          0.000149779
v1#branch                         -0.000149779


No. of Data Rows : 540

  Measurements for Transient Analysis

t_rise_edge         =   1.32765e-06
t_rise_             =  3.27654e-07
t_rise              =  3.27654e-01
sr_rise             =  3.05200e-01
t_fall_edge         =   2.01178e-04
t_fall              =  1.78256e-07
Netlist line no. 67:
Undefined parameter [t_fall_]
Netlist line no. 67:
 Expression err: t_fall_*1e6}
Netlist line no. 67:
Cannot compute substitute
t_fall              =   failed
sr_fall             =  5.60989e+05


Warning: command 'plot' is not available during batch simulation, ignored!
    You may use Gnuplot instead.

ASCII raw file "tran.dat"
Doing analysis at TEMP = 27.000000 and TNOM = 27.000000

Using SPARSE 1.3 as Direct Linear Solver

  Measurements for Transient Analysis

t_rise_edge         =   1.32765e-06
Netlist line no. 61:
insertnumber: fails.
  s = ".meas tran t_rise_ param=    3.276535413472221e-07   " u="  3.276535413472221e-07  " id=0
t_rise_             =   failed
Netlist line no. 62:
insertnumber: fails.
  s = ".meas tran t_rise param=    3.276535413472221e-01   " u="  3.276535413472221e-01  " id=0
t_rise              =   failed
Netlist line no. 63:
insertnumber: fails.
  s = ".meas tran sr_rise param=    3.052004247804778e-01   " u="  3.052004247804778e-01  " id=0
sr_rise             =   failed
t_fall_edge         =   2.01178e-04
Netlist line no. 66:
insertnumber: fails.
  s = ".meas tran t_fall param=    1.782564788536554e-07   " u="  1.782564788536554e-07  " id=0
t_fall              =   failed
Netlist line no. 67:
Undefined parameter [t_fall_]
Netlist line no. 67:
 Expression err: t_fall_*1e6}
Netlist line no. 67:
Cannot compute substitute
t_fall              =   failed
Netlist line no. 68:
insertnumber: fails.
  s = ".meas tran sr_fall param=    5.609894273862425e+05   " u="  5.609894273862425e+05  " id=0
sr_fall             =   failed


Total analysis time (seconds) = 0.235

Total elapsed time (seconds) = 1.044 

Total DRAM available = 1031447.340 MB.
DRAM currently available = 580740.867 MB.
Maximum ngspice program size =  116.723 MB.
Current ngspice program size =   36.086 MB.

Shared ngspice pages =    4.043 MB.
Text (code) pages =    6.008 MB.
Stack = 0 bytes.
Library pages =   40.254 MB.

